test/data/nem_2300bus.m
%% MATPOWER Case Format : Version 2
function mpc = NEM
mpc.version = '2';

%%-----  Power Flow Data  -----%%
%% system MVA base
mpc.baseMVA = 100;
%% bus data
%    bus_i    type    Pd    Qd    Gs    Bs    area    Vm    Va    baseKV    zone    Vmax    Vmin
mpc.bus = [
	1	1	0.0	0.0	0.0	0.0	1	1.056829623424886	-8.977279952476998	0.55	1	1.1	0.9				
	2	1	0.0	0.0	0.0	0.0	1	1.0568506101320916	-8.977575858894927	0.55	1	1.1	0.9				
	3	3	27.214341009702498	22.9900319056034	0.0	0.0	1	1.0155600000008822	-1.439043540934142e-10	23.0	1	1.1	0.9				
	4	2	35.305539065715095	25.536955754316597	0.0	0.0	1	1.0262600000008077	1.588803403263192	23.0	1	1.1	0.9				
	5	2	36.3464705546116	25.4527938492952	0.0	0.0	1	0.9990000000006636	4.90539022138185	23.0	1	1.1	0.9				
	6	2	36.153696760668204	25.952019776483105	0.0	0.0	1	1.0025100000006752	4.630940988078049	23.0	1	1.1	0.9				
	7	1	0.0	0.0	0.0	0.0	1	1.0207790301336637	0.7936873380854174	11.0	1	1.1	0.9				
	8	1	0.0	0.0	0.0	0.0	1	1.029636867007994	20.96864875685241	22.0	1	1.1	0.9				
	9	1	0.0	0.0	0.0	0.0	1	1.029636867007994	20.96864875685241	22.0	1	1.1	0.9				
	10	1	0.0	0.0	0.0	0.0	1	1.029636322187869	20.96862041943449	11.0	1	1.1	0.9				
	11	1	0.0	0.0	0.0	0.0	1	1.0296362949894846	20.96861778084282	11.0	1	1.1	0.9				
	12	2	0.0	0.0	0.0	0.0	1	1.0604999999995164	14.928388508866282	330.0	1	1.1	0.9				
	13	2	0.0	0.0	0.0	0.0	1	1.0154599999998417	9.416426090630896	0.6899999999999998	1	1.1	0.9				
	14	2	0.0	0.0	0.0	0.0	1	1.0172899999998444	9.353362528474202	0.6899999999999998	1	1.1	0.9				
	15	2	0.0	0.0	0.0	0.0	1	1.0125999999998783	8.373941651475816	0.6899999999999998	1	1.1	0.9				
	16	1	0.567323553623725	0.0	0.0	-2.2564771930617287	1	1.0018381174899345	10.2815415588037	0.6899999999999998	1	1.1	0.9				
	17	1	-0.23610117125269	0.0	0.0	-3.91829091666266	1	1.0015320800829315	10.33207482353905	0.6899999999999998	1	1.1	0.9				
	18	2	32.9123161610551	24.711783958261503	0.0	0.0	1	1.0112200000000926	12.41045145354788	23.0	1	1.1	0.9				
	19	2	32.7047949975725	24.864146277261202	0.0	0.0	1	1.0183700000000653	13.05452814535401	23.0	1	1.1	0.9				
	20	2	32.937722768523706	24.8430852986128	0.0	0.0	1	1.0233200000000091	13.64244859824255	23.0	1	1.1	0.9				
	21	2	33.7906400303283	25.010466589327603	0.0	0.0	1	1.0157699999999812	14.31259158148057	23.0	1	1.1	0.9				
	22	1	-83.0623847517897	0.0	0.0	-11.7381837877338	1	0.9985824609075477	17.43380828303851	33.0	1	1.1	0.9				
	23	2	0.041755911774933284	0.0395732937566936	0.0	0.0	1	1.026690000000016	5.144119136486958	16.0	1	1.1	0.9				
	24	2	0.0	0.0	0.0	0.0	1	1.0771299999990986	11.018302557921771	0.6899999999999998	1	1.1	0.9				
	25	2	0.0	0.0	0.0	0.0	1	1.0770499999990981	11.01290645295916	0.6899999999999998	1	1.1	0.9				
	26	2	0.0	-14.681676562177001	0.0	0.0	1	1.0875899999991359	9.937250975429427	0.6899999999999998	1	1.1	0.9				
	27	1	0.0	0.0	0.0	0.0	1	1.0485275537482068	8.88228979593709	132.0	1	1.1	0.9				
	28	2	0.0	0.0	0.0	0.0	1	1.0244899999992303	10.70340308382816	132.0	1	1.1	0.9				
	29	1	0.0	0.0	0.0	0.0	1	1.0226182481800343	-0.003946260780785413	16.0	1	1.1	0.9				
	30	2	0.07874156961217518	0.07739421614632008	0.0	0.0	1	1.0191300000000325	4.706373784984359	16.0	1	1.1	0.9				
	31	2	0.0	0.0	0.0	0.0	1	0.9528199999982646	24.86836490130132	11.0	1	1.1	0.9				
	32	1	176.73390301466	-4.11325372574511	0.0	0.0	1	1.0566003811438103	-23.14241163171997	33.0	1	1.1	0.9				
	33	1	-3.33792712396276	0.0	0.0	13.0353994753305	1	0.9282436337437064	14.875080974479731	11.0	1	1.1	0.9				
	34	2	18.341554469353003	10.3636909979163	0.0	0.0	1	0.9734900000000558	13.12980784018663	22.0	1	1.1	0.9				
	35	2	17.4121562782648	10.893810214865999	0.0	0.0	1	0.9320500000000145	14.13026797802986	22.0	1	1.1	0.9				
	36	2	18.582245540429103	10.5566776532596	0.0	0.0	1	0.9755800000000123	14.19604504955022	22.0	1	1.1	0.9				
	37	2	0.0943259037151933	0.08743726937780161	0.0	0.0	1	0.9789699999983338	29.43261390478714	15.4	1	1.1	0.9				
	38	2	0.0876203157609328	0.09076399877332152	0.0	0.0	1	0.9780499999983339	29.06043145060584	15.4	1	1.1	0.9				
	39	2	0.09111050326647241	0.0927051996761467	0.0	0.0	1	0.9840699999983344	29.46882876351581	15.4	1	1.1	0.9				
	40	2	0.0894937716460321	0.0930797259162646	0.0	0.0	1	0.9818599999983345	29.682318977868132	15.4	1	1.1	0.9				
	41	2	0.09191597477369938	0.0946137851933017	0.0	0.0	1	0.9837699999983311	29.512251251851044	15.4	1	1.1	0.9				
	42	2	0.0944379383103922	0.0882814010351896	0.0	0.0	1	0.9855599999983311	29.38278188549631	15.4	1	1.1	0.9				
	43	2	31.518040437391004	25.972870391560697	0.0	0.0	1	0.9989400000003716	5.781007638305895	23.0	1	1.1	0.9				
	44	1	0.0	0.0	0.0	0.0	1	1.0269357353109256	-1.021279768640452	23.0	1	1.1	0.9				
	45	1	0.0	0.0	0.0	0.0	1	0.989968319942511	-6.42680705590938	17.5	1	1.1	0.9				
	46	1	-6.321807256489991	0.0	0.0	0.062422145700082164	1	1.0024784261968391	13.51768564508145	22.0	1	1.1	0.9				
	47	1	1.02072695429423	0.733871934417821	0.0	0.0	1	1.0243680589513333	-6.460367023172039	15.0	1	1.1	0.9				
	48	1	1.1200335927479	0.730782591217384	0.0	0.0	1	1.02435291825526	-6.464954253855753	15.0	1	1.1	0.9				
	49	1	0.968675146375224	0.592623299681395	0.0	0.0	1	1.0244362425658606	-6.460279788209045	15.0	1	1.1	0.9				
	50	1	0.9397457393940071	0.5860383047368382	0.0	0.0	1	1.0244466402973187	-6.45878562638311	15.0	1	1.1	0.9				
	51	1	-3.06059989218204	0.0	0.0	0.0	1	1.0412859377372061	6.971322240952063	0.55	1	1.1	0.9				
	52	1	-20.5648680556712	0.0	0.0	-3.910596988102419	1	1.0265702099148346	23.16550479858929	22.0	1	1.1	0.9				
	53	1	-20.355388152304997	0.0	0.0	-3.6806902014426894	1	1.0272722590769332	23.07335578409237	22.0	1	1.1	0.9				
	54	1	37.3257623166889	4.58530336711928	0.0	-4.595364754858888	1	1.0153875285431972	16.16878072030653	11.0	1	1.1	0.9				
	55	1	0.0	0.0	0.0	0.0	1	1.0686762971587203	15.07249015472151	0.55	1	1.1	0.9				
	56	2	7.19655427563423	2.41647754932139	0.0	0.0	1	0.9880100000003142	3.7997444595260004	21.0	1	1.1	0.9				
	57	2	0.0	0.0	0.0	0.0	1	1.0150199999980112	26.55554402291894	11.5	1	1.1	0.9				
	58	2	0.0	0.0	0.0	0.0	1	0.9449199999981235	32.22147552893529	11.5	1	1.1	0.9				
	59	1	0.0	0.0	0.0	0.0	1	1.0134422166415877	18.68287174311193	132.0	1	1.1	0.9				
	60	1	-14.282245254126602	0.0	0.0	-4.096644248932133	1	1.0441291959448833	14.112679816441842	12.0	1	1.1	0.9				
	61	2	0.0	0.0	0.0	0.0	1	1.0270000000013784	-11.36596408286945	330.0	1	1.1	0.9				
	62	2	0.0	0.0	0.0	0.0	1	0.9160899999978572	22.04129698999879	11.0	1	1.1	0.9				
	63	2	0.0	0.0	0.0	0.0	1	1.0414899999976572	22.76213742824785	11.0	1	1.1	0.9				
	64	2	0.0	0.0	0.0	0.0	1	1.0629799999980032	35.82441718589963	15.75	1	1.1	0.9				
	65	2	0.0	0.0	0.0	0.0	1	1.0575999999980057	36.01166468070276	15.75	1	1.1	0.9				
	66	2	0.0	0.0	0.0	0.0	1	1.063539999998005	36.00342364179156	15.75	1	1.1	0.9				
	67	2	0.0	0.0	0.0	0.0	1	1.0626299999980076	36.14345972925743	15.75	1	1.1	0.9				
	68	1	0.0	0.0	0.0	0.0	1	0.9711622200555297	20.32284773310832	12.5	1	1.1	0.9				
	69	2	0.0433923930488527	0.043749541898723696	0.0	0.0	1	0.9635399999983624	22.60603055253578	12.5	1	1.1	0.9				
	70	2	0.0448706568134017	0.0477275057820603	0.0	0.0	1	0.9702499999983616	22.99129928570131	12.5	1	1.1	0.9				
	71	1	0.0	0.0	0.0	0.0	1	0.9718826269399232	20.24984244031531	12.5	1	1.1	0.9				
	72	1	0.0	0.0	0.0	0.0	1	1.017138359155176	20.41908007855816	12.5	1	1.1	0.9				
	73	2	0.0380112225227058	0.0406420744564384	0.0	0.0	1	1.00306999999828	23.33733213330934	12.5	1	1.1	0.9				
	74	2	0.0387934326939285	0.038430588806048	0.0	0.0	1	1.0127499999982816	23.4722096654911	12.5	1	1.1	0.9				
	75	2	0.0380778377875686	0.0389150532997213	0.0	0.0	1	1.0241899999982815	23.59073494107054	12.5	1	1.1	0.9				
	76	2	26.3099001010022	14.9509423831273	0.0	0.0	1	1.0188500000008487	1.114119245169003	23.0	1	1.1	0.9				
	77	2	27.959039167828397	14.5822928520143	0.0	0.0	1	1.0095500000008435	1.244714711594707	23.0	1	1.1	0.9				
	78	1	17.944003521226342	9.016822778878133	0.0	-4.9940764243723805	1	1.02542788041576	17.80184585832935	66.0	1	1.1	0.9				
	79	2	0.0	0.0	0.0	0.0	1	1.0445900000015635	-13.73592315818436	11.0	1	1.1	0.9				
	80	2	0.0	0.0	0.0	0.0	1	1.042060000001548	-13.34310763904506	11.0	1	1.1	0.9				
	81	1	0.0	0.0	0.0	0.0	1	1.0528241558378864	-19.45868148489789	11.0	1	1.1	0.9				
	82	1	0.0	0.0	0.0	0.0	1	1.053153657841849	-19.45817671796368	11.0	1	1.1	0.9				
	83	1	0.0	0.0	0.0	0.0	1	1.081583649477113	5.345717254579498	11.5	1	1.1	0.9				
	84	1	0.0	0.0	0.0	0.0	1	1.0815836494771112	5.345717254579491	11.5	1	1.1	0.9				
	85	1	0.0	0.0	0.0	0.0	1	1.0412966199698233	-2.650600156493706	500.0	1	1.1	0.9				
	86	1	0.0	0.0	0.0	0.0	1	1.019293048648907	-4.277768925890689	330.0	1	1.1	0.9				
	87	1	0.0	0.0	0.0	0.0	1	1.047427455654175	-6.089586014839488	500.0	1	1.1	0.9				
	88	1	0.0	0.0	0.0	412.0286558941007	1	1.0448957447412697	-8.899513338954277	330.0	1	1.1	0.9				
	89	1	37.6267045701061	13.56006488609383	0.0	0.0	1	1.0346039812794667	-17.54779200337783	132.0	1	1.1	0.9				
	90	1	0.0	0.0	0.0	0.0	1	1.068327567087969	14.9277198448466	330.0	1	1.1	0.9				
	91	1	0.0	0.0	0.0	0.0	1	1.0258919100438	-4.308838728235784	330.0	1	1.1	0.9				
	92	1	0.0	0.0	0.0	0.0	1	1.0476213533300094	0.7743583451813953	500.0	1	1.1	0.9				
	93	1	0.0	0.0	0.0	0.0	1	1.0288334040629687	0.3986422144461632	330.0	1	1.1	0.9				
	94	1	0.0	0.0	0.0	0.0	1	1.0555223434888397	6.955676388074683	500.0	1	1.1	0.9				
	95	1	0.0	0.0	0.0	0.0	1	1.034813928084693	6.610155754468517	330.0	1	1.1	0.9				
	96	1	0.0	0.0	0.0	0.0	1	1.0226589958516255	0.02303193433773126	330.0	1	1.1	0.9				
	97	1	0.0	0.0	0.0	0.0	1	1.0217327030733752	8.460477570531758	330.0	1	1.1	0.9				
	98	1	0.0	0.0	0.0	0.0	1	1.0124518368931967	11.70038682070796	330.0	1	1.1	0.9				
	99	1	0.0	0.0	0.0	0.0	1	1.0696118248711037	11.1044747219506	330.0	1	1.1	0.9				
	100	1	0.0	0.0	0.0	0.0	1	1.024377374929828	-4.012439172679424	330.0	1	1.1	0.9				
	101	1	0.0	0.0	0.0	0.0	1	1.0688982286764925	20.82992795177304	330.0	1	1.1	0.9				
	102	1	0.0	0.0	0.0	-155.26726707816096	1	1.0362767131245694	-11.87591346681503	330.0	1	1.1	0.9				
	103	1	0.0	0.0	0.0	0.0	1	1.0489657900475857	13.63319065873542	132.0	1	1.1	0.9				
	104	1	0.0	0.0	0.0	-62.150755693204694	1	1.0531521422773407	25.58528512930064	330.0	1	1.1	0.9				
	105	1	0.0	0.0	0.0	0.0	1	1.0512885777753689	-14.848284445144172	330.0	1	1.1	0.9				
	106	1	0.0	0.0	0.0	0.0	1	1.036875728215395	-11.7554989414603	330.0	1	1.1	0.9				
	107	1	0.0	0.0	0.0	0.0	1	1.031637882918312	-10.12925588470406	330.0	1	1.1	0.9				
	108	1	0.0	0.0	0.0	0.0	1	1.041741295716282	22.052209785024623	330.0	1	1.1	0.9				
	109	1	0.0	0.0	0.0	0.0	1	1.0226182481800357	-0.003946260780745655	330.0	1	1.1	0.9				
	110	1	0.0	0.0	0.0	0.0	1	1.0321576277803532	6.620543953291656	330.0	1	1.1	0.9				
	111	1	0.0	0.0	0.0	-100.10944619309201	1	1.047584860016429	10.31203454452455	330.0	1	1.1	0.9				
	112	1	0.0	0.0	0.0	0.0	1	1.032314710127017	-11.76521884521535	330.0	1	1.1	0.9				
	113	1	0.0	0.0	0.0	0.0	1	1.025964178568837	22.29398066546937	330.0	1	1.1	0.9				
	114	1	0.0	0.0	0.0	0.0	1	1.0263938121238003	0.4726988178013388	330.0	1	1.1	0.9				
	115	1	0.0	0.0	0.0	0.0	1	1.0357975972550688	-8.246491260547778	330.0	1	1.1	0.9				
	116	1	0.0	0.0	0.0	0.0	1	1.0552983174432637	1.218506002492175	500.0	1	1.1	0.9				
	117	1	0.0	0.0	0.0	0.0	1	1.0381355586787646	-1.021279768640452	330.0	1	1.1	0.9				
	118	1	0.0	0.0	0.0	0.0	1	1.0248202446432104	-6.426807055909307	330.0	1	1.1	0.9				
	119	1	0.0	0.0	0.0	0.0	1	1.0224948226475856	4.978460662175444	330.0	1	1.1	0.9				
	120	1	0.0	0.0	0.0	0.0	1	1.0307221646647158	6.584062680213872	330.0	1	1.1	0.9				
	121	1	52.1446072876835	-10.4186994219702	0.0	0.0	1	1.0457788243688528	-19.46389930000411	132.0	1	1.1	0.9				
	122	1	47.0702037674924	-7.42322407301534	0.0	0.0	1	1.045682106346644	-19.40236534486947	132.0	1	1.1	0.9				
	123	1	0.771102107275277	0.5350705203771591	0.0	0.0	1	1.0467036818024364	-19.17903518095962	132.0	1	1.1	0.9				
	124	1	46.8132718256355	-6.03130423971033	0.0	0.0	1	1.0469133881908312	-19.36830718059969	132.0	1	1.1	0.9				
	125	1	0.0	0.0	0.0	0.0	1	1.0510434181259478	-18.45282550283369	132.0	1	1.1	0.9				
	126	1	0.0	0.0	0.0	0.0	1	1.010927308377204	-5.261014874612455	330.0	1	1.1	0.9				
	127	1	0.0	0.0	0.0	0.0	1	1.0298510962601373	-10.13755091142178	330.0	1	1.1	0.9				
	128	1	0.0	0.0	0.0	0.0	1	1.0414933852248218	-13.54992377193754	330.0	1	1.1	0.9				
	129	1	0.0	0.0	0.0	0.0	1	1.0147465714050727	26.5886502529894	132.0	1	1.1	0.9				
	130	1	0.0	0.0	0.0	0.0	1	1.0431480182213402	10.56586515752351	132.0	1	1.1	0.9				
	131	1	0.0	0.0	0.0	0.0	1	1.0399968300576956	-12.48436238274671	330.0	1	1.1	0.9				
	132	1	14.2949130828764	5.14730489338171	0.0	0.0	1	1.0285958942025917	18.56383733712308	132.0	1	1.1	0.9				
	133	1	0.0	0.0	0.0	0.0	1	1.034771480601476	-11.19058337365726	330.0	1	1.1	0.9				
	134	1	0.0	0.0	0.0	-145.46868681209196	1	1.0543751026931767	-14.43198101994046	330.0	1	1.1	0.9				
	135	1	0.0	0.0	0.0	0.0	1	1.0590800372762637	21.55538797031457	330.0	1	1.1	0.9				
	136	1	0.0	0.0	0.0	0.0	1	1.059080037268648	21.555387973150143	330.0	1	1.1	0.9				
	137	1	0.0	0.0	0.0	401.9661514088508	1	1.033731939389554	-11.36660502774084	330.0	1	1.1	0.9				
	138	1	0.0	0.0	0.0	0.0	1	1.0544860414788229	10.35642636581861	330.0	1	1.1	0.9				
	139	1	969.0150037223428	274.39628427689956	0.0	221.55104858288502	1	1.0047895627659134	-6.117208718562539	330.0	1	1.1	0.9				
	140	1	0.0	0.0	0.0	0.0	1	1.0222163923104999	-9.554664906240859	330.0	1	1.1	0.9				
	141	1	0.0	0.0	0.0	0.0	1	1.0189536952058418	20.112161152775634	330.0	1	1.1	0.9				
	142	2	0.0	0.0	0.0	192.1560231596229	1	1.0250777860011466	-5.488875077276375	330.0	1	1.1	0.9				
	143	1	0.0	0.0	0.0	0.0	1	1.0280674964539103	-11.58035221279875	330.0	1	1.1	0.9				
	144	1	0.0	0.0	0.0	0.0	1	1.052733411552958	22.59747569897063	330.0	1	1.1	0.9				
	145	1	0.0	0.0	0.0	0.0	1	1.0367940432829892	-1.715413527701392	330.0	1	1.1	0.9				
	146	1	0.0	0.0	0.0	0.0	1	1.0062080935474937	-5.906182272295832	330.0	1	1.1	0.9				
	147	1	0.0	0.0	0.0	0.0	1	1.0067568315654	10.6986678674577	330.0	1	1.1	0.9				
	148	1	0.0	0.0	0.0	-102.09912414196896	1	1.0284116779724406	-2.014981055088598	330.0	1	1.1	0.9				
	149	1	0.0	0.0	0.0	0.0	1	1.0597865293552977	3.357201427299076	500.0	1	1.1	0.9				
	150	1	0.0	0.0	0.0	0.0	1	1.0521324527610978	2.069465416832535	330.0	1	1.1	0.9				
	151	1	0.0	0.0	0.0	0.0	1	1.0153189531149125	9.66250731252819	330.0	1	1.1	0.9				
	152	1	0.0	0.0	0.0	80.07954398542638	1	1.0258323578063713	12.87029397213267	132.0	1	1.1	0.9				
	153	1	0.0	0.0	0.0	0.0	1	1.0811466389488653	10.7230449975182	132.0	1	1.1	0.9				
	154	1	0.0	0.0	0.0	-130.99993497598902	1	0.9662250489235306	0.508715633861644	33.0	1	1.1	0.9				
	155	1	0.0	0.0	0.0	0.0	1	1.0327391500435605	0.4997470458633272	33.0	1	1.1	0.9				
	156	1	0.0	0.0	0.0	0.0	1	1.0519506457673893	-18.43917719764521	132.0	1	1.1	0.9				
	157	1	0.0	0.0	0.0	24.588292440399492	1	1.0540592497775523	7.473031042478997	132.0	1	1.1	0.9				
	158	1	0.0	0.0	0.0	116.674105312675	1	1.0272735041860068	9.45117807912652	132.0	1	1.1	0.9				
	159	1	301.5311189719217	25.095294130560866	0.0	123.898189047351	1	1.0232384724272956	-4.945411064841417	132.0	1	1.1	0.9				
	160	1	0.0	0.0	0.0	-34.6324332985561	1	1.0263186936575068	20.9028893068318	220.0	1	1.1	0.9				
	161	1	17.99162321349137	-4.0153217847230875	0.0	38.434252901338	1	1.0824015001190455	20.02358894221748	132.0	1	1.1	0.9				
	162	1	245.3628241939315	97.02741304246018	0.0	-103.90770591329796	1	1.0508568323147438	-18.43954029020352	132.0	1	1.1	0.9				
	163	1	0.0	0.0	0.0	0.0	1	1.0237155911582843	-15.21269695255678	132.0	1	1.1	0.9				
	164	1	0.0	0.0	0.0	0.0	1	1.0234504885376539	-15.184925526642928	132.0	1	1.1	0.9				
	165	1	0.0	0.0	0.0	0.0	1	1.046582155804884	20.90758867908772	132.0	1	1.1	0.9				
	166	2	0.0	0.0	0.0	0.0	1	1.0040699999992804	9.863507771527251	132.0	1	1.1	0.9				
	167	1	0.0	0.0	0.0	0.0	1	1.0364286276439407	-14.58335293756252	132.0	1	1.1	0.9				
	168	1	0.0	0.0	0.0	0.0	1	1.0364678855309235	-14.573534195615332	132.0	1	1.1	0.9				
	169	1	0.0	0.0	0.0	0.0	1	1.0364446138119834	-14.57578988970719	132.0	1	1.1	0.9				
	170	1	0.0	0.0	0.0	0.0	1	1.0281270696248392	-0.5869373359806229	132.0	1	1.1	0.9				
	171	1	0.0	0.0	0.0	0.0	1	1.0365646198609182	-13.42856220209507	132.0	1	1.1	0.9				
	172	1	0.0	0.0	0.0	0.0	1	1.0781271737794142	-4.03635933845317	132.0	1	1.1	0.9				
	173	1	0.0	0.0	0.0	0.0	1	1.0416802139151446	-8.362517725499417	132.0	1	1.1	0.9				
	174	2	0.0	0.0	0.0	0.0	1	0.9978099999996237	6.186595908266506	33.0	1	1.1	0.9				
	175	1	0.0	0.0	0.0	0.0	1	1.053454900653084	4.256303139121247	132.0	1	1.1	0.9				
	176	1	0.0	0.0	0.0	0.0	1	1.0544186483825417	-9.14614919711142	132.0	1	1.1	0.9				
	177	1	73.3572088843278	33.44047211891767	0.0	82.45979792252179	1	1.019095661508403	-12.4707361779142	132.0	1	1.1	0.9				
	178	1	632.5183891335347	-25.520239119883648	0.0	110.23872074438299	1	1.0228567733458054	-16.61128981898583	132.0	1	1.1	0.9				
	179	1	215.91967169481802	81.55375378110216	0.0	123.99600445479204	1	1.0343018150577576	-16.41523228602024	132.0	1	1.1	0.9				
	180	1	0.0	0.0	0.0	0.0	1	1.0230002811853522	-16.09922114238406	132.0	1	1.1	0.9				
	181	1	0.0	0.0	0.0	0.0	1	1.0231899205453	-16.61427713441913	132.0	1	1.1	0.9				
	182	1	78.4661207230591	3.5030830638563297	0.0	118.62339701503501	1	1.0352964786379244	-15.129063909437871	132.0	1	1.1	0.9				
	183	1	8.25949321419513	0.0191367482934147	0.0	167.431074902415	1	1.0442400764898743	-15.9368489250595	132.0	1	1.1	0.9				
	184	1	24.109205815278102	6.27467704216484	0.0	160.632906526327	1	1.0436910880563068	-15.733025097866408	132.0	1	1.1	0.9				
	185	1	103.77583088981969	19.8401998823269	0.0	0.0	1	1.0283391919849387	8.131920662220686	132.0	1	1.1	0.9				
	186	1	0.0	0.0	0.0	0.0	1	1.0624417900467933	-8.251555429025876	132.0	1	1.1	0.9				
	187	1	0.0	0.0	0.0	0.0	1	1.0363827651421698	-10.21765499143834	132.0	1	1.1	0.9				
	188	1	41.184766744947	17.5264675299108	0.0	0.0	1	1.0435518438562257	-11.73648420230902	132.0	1	1.1	0.9				
	189	1	8.196319011532239	-0.7174650966227059	0.0	0.0	1	1.054876457159596	-8.678429239879797	132.0	1	1.1	0.9				
	190	1	0.0	0.0	0.0	0.0	1	1.04624801099138	-7.7072932560423695	132.0	1	1.1	0.9				
	191	1	0.0	0.0	0.0	59.59430044703179	1	1.0375730896435036	-15.4978901908185	132.0	1	1.1	0.9				
	192	1	0.0	0.0	0.0	78.97053647786379	1	1.053493328624043	24.020023125565075	132.0	1	1.1	0.9				
	193	1	18.255845924162298	8.83805388663374	0.0	0.0	1	1.076083939105193	-4.381686630838623	132.0	1	1.1	0.9				
	194	1	80.430232870505	30.824093108362604	0.0	0.0	1	1.049605311312625	-6.831170659545386	132.0	1	1.1	0.9				
	195	1	0.0	0.0	0.0	0.0	1	1.0526506377315819	-11.20293169611148	132.0	1	1.1	0.9				
	196	1	33.561723720686004	22.4382156755955	0.0	0.0	1	1.044977491001384	-9.847637440605078	132.0	1	1.1	0.9				
	197	1	0.0	0.0	0.0	0.0	1	1.0286022926971743	9.183502503579549	132.0	1	1.1	0.9				
	198	1	0.0	0.0	0.0	19.3074304163456	1	1.050322532483244	-4.9645850279442	132.0	1	1.1	0.9				
	199	1	0.0	0.0	0.0	0.0	1	1.0399560701958817	11.08251172842113	132.0	1	1.1	0.9				
	200	1	0.0	0.0	0.0	0.0	1	1.046546565943881	-8.843206218099784	132.0	1	1.1	0.9				
...
];

%% generator data
%    bus    Pg    Qg    Qmax    Qmin    Vg    mBase    status    Pmax    Pmin    Pc1    Pc2    Qc1min    Qc1max    Qc2min    Qc2max    ramp_agc    ramp_10    ramp_30    ramp_q    apf
mpc.gen = [
	3	431.89334232400006	-24.521463397999998	361.080897667566	-232.88560096658796	1.01556	848.605419222452	1	848.6054192224522	0.0															
	4	624.40737834601	64.8168883589584	447.694821266016	-186.42936408018898	1.02626	911.2691769853241	1	911.2691769853241	0.0															
	5	650.401460230983	17.1883693068953	388.821155851102	-259.347073892131	0.999	914.521020424575	1	914.521020424575	0.0															
	6	631.7539076734402	37.213374197097096	443.446216774394	-183.809605420828	1.00251	915.047054038756	1	915.047054038756	0.0															
	13	30.2265357711347	2.1328312649857297	2.77527580510248	-2.82548800646961	1.01546	41.1012975615542	1	41.1012975615542	0.0															
	14	32.1221972278725	3.847882429963349	5.342418080064651	-5.176808585592781	1.01729	45.4628463133704	1	45.4628463133704	0.0															
	15	19.277781191996898	0.46368514422499607	0.515716733953799	-0.5106635269879599	1.0126	28.477100057434303	1	28.477100057434303	0.0															
	18	565.935071064465	76.76821743240511	439.83294185714306	-271.24127730494394	1.01122	853.1517461942509	1	853.1517461942508	0.0															
	19	664.1802905846021	116.850947170548	421.6389582355971	-272.264737280784	1.01837	828.587737327442	1	828.587737327442	0.0															
	20	630.779430353494	123.09915439605301	427.189790036436	-264.036246150499	1.02332	824.9557847308	1	824.9557847308001	0.0															
	21	660.810311423638	92.7982150761187	424.976144654024	-270.017779694172	1.01577	815.543500367366	1	815.5435003673662	0.0															
	23	81.9568333770882	3.7421545503518496	43.6772291879432	-24.477591651959603	1.02669	100.1029132	1	100.1029132	0.0															
	30	77.3267838781388	-3.50851274594665	41.1498081746824	-28.311724570271394	1.01913	99.5320069049927	1	99.5320069049927	0.0															
	31	55.970990066540104	-7.30109434132907	28.8423004899453	-28.927321126509902	0.95282	90.5889255829901	1	90.5889255829901	0.0															
	34	405.05126933506904	36.0377353830287	202.223581927363	-101.9818583922	0.97349	643.693602205161	1	643.6936022051609	0.0															
	35	407.77499201904703	-93.8426247742008	210.9268069	-114.72612428000002	0.93205	645.28666725168	1	645.2866672516801	0.0															
	36	426.5161774322531	42.1066275972186	200.851186675485	-98.66806532924531	0.97558	628.9849849482072	1	628.9849849482072	0.0															
	37	246.36371654223402	1.1105895665460301	88.05994908506982	-87.7627587602939	0.97897	343.073364149896	1	343.073364149896	0.0															
	38	246.53546941532	-1.1678426247423999	89.1417249809485	-88.67327827280391	0.97805	338.426626157714	1	338.426626157714	0.0															
	39	248.465284474285	13.4766408302221	89.38251127647241	-87.9663448969368	0.98407	341.42365312634496	1	341.42365312634496	0.0															
	40	256.48333277373905	9.456149262328069	86.8566196294967	-89.5501706256066	0.98186	336.309318444924	1	336.309318444924	0.0															
	41	245.36307114282198	13.794420346358402	88.5082245273981	-87.0222746504471	0.98377	333.510404178291	1	333.51040417829097	0.0															
	42	242.463117731816	17.971023596443196	89.7792039635126	-87.1795750621241	0.98556	340.135576679022	1	340.135576679022	0.0															
	43	641.205869383868	-79.2208985881729	411.241218333378	-178.21046795036898	0.99894	832.440999925509	1	832.440999925509	0.0															
	56	409.952588354057	8.71409053639974	275.95224707040506	-122.92843904081	0.98801	546.171568101272	1	546.171568101272	0.0															
	57	0.0	3.29022754875435	16.0322794052772	-12.997324272897101	1.01502	46.1062790306169	1	46.1062790306169	0.0															
	58	30.3989596087625	-9.75506422682516	15.8197994363727	-13.1615677549504	0.94492	46.5332684993628	1	46.5332684993628	0.0															
	62	22.5934707990981	11.096846189928302	17.86149778	-26.08310961	0.91609	30.5123773106886	1	30.512377310688603	0.0															
	63	20.5592082879526	-0.16138491215324	13.1827446830459	-10.8955121632079	1.04149	29.6002670221357	1	29.6002670221357	0.0															
	64	151.99882825729298	-1.97199990038797	92.5178569113446	-46.3170552711485	1.06298	210.894545504451	1	210.894545504451	0.0															
	65	147.744403827981	-8.13028176963227	92.38101845694561	-45.3271333475836	1.0576	207.096134014428	1	207.096134014428	0.0															
	66	157.04825788377198	-1.2465739881142999	92.83365465915378	-46.34384567925989	1.06354	209.43448703438	1	209.43448703438003	0.0															
	67	150.91881079843	-2.21712468539341	92.8993434242263	-45.439055461244706	1.06263	210.867295503616	1	210.86729550361602	0.0															
	69	45.5453139887114	-11.7293045770481	28.6993696373887	-28.4829097341048	0.96354	108.81484992434301	1	108.81484992434301	0.0															
	70	49.67218813880051	-3.45493803172465	28.623892573057695	-29.698734820657396	0.97025	110.332978322869	1	110.33297832286901	0.0															
	73	43.2331766436034	-13.684934688052799	31.887023373483697	-29.799463425576704	1.00307	96.48768505742771	1	96.4876850574277	0.0															
	74	41.671530701732294	-6.34282647466175	30.8808518911945	-30.3624346183613	1.01275	98.0252477621194	1	98.0252477621194	0.0															
	75	43.07847587842049	2.7352948936936903	31.233938283124	-30.148387419432403	1.02419	96.5074638390634	1	96.5074638390634	0.0															
	76	601.9228605073649	68.4206095867701	409.513369222329	-155.004466757959	1.01885	835.11956340652	1	835.1195634065199	0.0															
	77	594.185006502323	28.983092414969803	409.293647633433	-151.15426776656798	1.00955	829.493444249593	1	829.4934442495929	0.0															
	79	33.6224140786135	-1.7698750120983504	6.986617477999999	-17.030025791	1.04459	52.3175148501992	1	52.317514850199196	0.0															
	80	34.037052000734604	-2.4237874515906	7.617062496	-17.677017947	1.04206	51.9722352538258	1	51.97223525382581	0.0															
	647	64.58350418747361	0.37462820608019803	32.339815942443	-29.313641349795798	0.97085	86.4684665810317	1	86.4684665810317	0.0															
	648	58.69554476671941	0.366359938384267	31.1776407402344	-30.0504588578418	0.9712	90.0339754913002	1	90.03397549130018	0.0															
	654	50.990623193234306	-3.24980309639736	4.11030738369925	-4.017584092566491	1.06431	98.9588547302624	1	98.9588547302624	0.0															
	655	112.97404027993099	-3.9362810441209	4.33245126562393	-4.413120239160119	1.05968	179.468505843356	1	179.46850584335604	0.0															
	656	12.718660331978601	3.0661311341823496	6.315259544737641	0.0	0.97713	23.38719214	1	23.38719214	0.0															
	658	165.978187592202	0.343592807862908	78.8080960141728	-43.796791934408205	0.97456	189.47538619999997	1	189.4753862	0.0															
	659	51.46347397016579	-11.530151942175001	31.2449329170631	-25.2157668292522	1.00988	70.2652235693065	1	70.2652235693065	0.0															
	660	53.7882164716721	-9.82455924073085	31.741274535656	-25.4046234145761	1.0122	71.0795632928889	1	71.07956329288892	0.0															
	665	115.27907018156999	-15.398137622243501	48.3790735420771	-49.01848117285411	0.95996	152.586644802825	1	152.58664480282502	0.0															
	668	69.7121333398338	-6.70421066225446	41.7424389316002	-41.16014991402629	0.96635	108.100446894949	1	108.100446894949	0.0															
	672	65.804614318345	-0.900903784301877	42.2600043794839	-41.2807382822037	0.97242	110.470307527771	1	110.47030752777098	0.0															
	674	69.5386755602799	-9.84916305486169	42.237306916737	-41.14350542631	0.96361	108.17915012921699	1	108.17915012921699	0.0															
	680	71.3839554087347	2.32638627378177	39.69561401579989	-32.341330635594204	0.95738	107.325694307219	1	107.32569430721901	0.0															
	681	72.45267330743368	-12.0128617628943	40.0196046266938	-32.419386330759195	0.93803	107.571180567611	1	107.571180567611	0.0															
	682	71.4069515075775	-4.6704606956616	39.2482589823194	-31.640905901323997	0.94763	108.142809283454	1	108.14280928345399	0.0															
	684	136.046296661597	-7.368156470804339	100.40218695297199	-30.2816066885351	0.98898	201.368655754533	1	201.36865575453297	0.0															
	685	143.32652905182	-2.03017769778478	101.370253659187	-30.145730123524906	0.99603	201.766158744693	1	201.766158744693	0.0															
	687	346.95005454379395	-36.692059481947396	320.62392085313303	-207.056388105103	1.00618	630.7525659587229	1	630.7525659587229	0.0															
	688	545.601412348538	6.578139153325649	306.75843227841	-196.662271597704	1.01171	692.4764770461251	1	692.476477046125	0.0															
	689	526.740899209748	-74.9163160444217	333.46965	-100.12324156000001	0.9903	743.727576350409	1	743.7275763504091	0.0															
	690	511.886080085132	55.344790299059795	321.508501711393	-108.03294496504299	0.99891	651.18307242021	1	651.18307242021	0.0															
	691	529.759362199972	47.88466473868031	323.341019248349	-104.66104357627299	0.99686	647.149878913164	1	647.149878913164	0.0															
	693	90.0189063795386	4.446300647875949	4.88538250780636	-4.99310070382631	1.06524	115.622949829081	1	115.62294982908101	0.0															
	694	51.7755913180758	9.89028119585291	15.976388799999999	-26.051903250000002	1.07291	69.6506796327507	1	69.6506796327507	0.0															
	695	27.502320582569702	7.64712922532787	7.813163267061421	-7.902615132351171	1.07773	46.581592120633	1	46.581592120633005	0.0															
	696	50.68418794423341	9.82985949239228	11.79132423804	-12.0872618720163	1.07461	114.864380666002	1	114.86438066600199	0.0															
	697	30.970484672293104	6.60865617792485	7.2769157751365094	-7.434656453233031	1.07694	73.23516054158162	1	73.23516054158162	0.0															
	698	43.3489842760144	8.974411675248342	14.532299273	-24.384855461	1.08353	113.018319971292	1	113.01831997129199	0.0															
	699	50.769790687559	-0.870072425790271	16.8239149765134	-13.642655924681602	0.97517	100.974593	1	100.974593	0.0															
	700	46.9121250839084	-0.8867070204496379	16.1336600902486	-13.476504607977102	0.97542	100.3645848	1	100.36458479999999	0.0															
	701	49.47508432327339	-0.909071200627182	16.5539831709787	-13.8422341934865	0.97015	100.148673	1	100.14867299999999	0.0															
	702	259.780769472675	29.380438943110498	125.99553129896502	-67.0686107195914	0.99413	352.29798341787	1	352.29798341787	0.0															
	703	247.87455000916	16.7708194425677	125.559830033267	-66.7450787763111	0.989	353.577216341277	1	353.577216341277	0.0															
	708	31.694694625116902	-3.30541775477491	23.8484369408552	-14.2477135847208	0.99081	51.6119330540299	1	51.61193305402989	0.0															
	712	473.373842322757	45.6580550539587	257.205845451355	-169.321169144879	0.96625	626.956900197733	1	626.956900197733	0.0															
	729	28.8376042157381	-3.44932537813294	15.784886686247802	-13.1879192154855	0.97029	100.8087346	1	100.8087346	0.0															
	730	348.993836114038	-78.07564414404922	180.333202431328	-118.968445812119	0.99185	476.643849198753	1	476.643849198753	0.0															
	731	315.80497244537196	-44.2295903584657	185.48609343960402	-117.95162653643601	0.97286	413.478915313189	1	413.47891531318896	0.0															
	732	326.010094955155	13.7888998626748	192.90598906888602	-144.21475696458901	0.99223	481.327456929814	1	481.327456929814	0.0															
	733	384.30129750208005	11.433909835405599	193.607759779878	-144.348324105609	0.98956	475.496667556395	1	475.49666755639504	0.0															
	953	34.37087262522778	1.0014128042542398	19.3516230660025	-12.8601512594149	1.02644	47.1338866906008	1	47.1338866906008	0.0															
	954	32.5579225848377	0.6666875720855779	19.5075354155153	-12.972653710562701	1.02602	46.1283384356648	1	46.1283384356648	0.0															
	955	34.989074655062	0.8944543812100769	19.822111973376	-16.054868796635404	1.02719	53.539829139953895	1	53.539829139953895	0.0															
	956	33.0022717441131	0.408944916197751	19.7613415580941	-13.006189162284102	1.02592	66.5378691187571	1	66.5378691187571	0.0															
	1136	38.15006813653801	-1.78708623269442	29.551508558390204	-18.611840673303202	0.99783	56.4829927750938	1	56.4829927750938	0.0															
	1137	54.78896249383889	0.188969746815553	39.445308756288	-19.5410217327923	1.0006	70.4010887629353	1	70.40108876293529	0.0															
	1138	37.3852416237806	-2.2534103836764596	40.15900753426829	-19.6813599202316	0.97188	55.8495727342218	1	55.84957273422181	0.0															
	1246	158.62248344307702	10.879602374576299	18.392053976052104	-16.042929740308303	1.05379	240.12185123283402	1	240.12185123283402	0.0															
	1274	672.011629407089	11.8418634473528	380.783861394891	-210.94318277375703	1.07483	989.914190588519	1	989.914190588519	0.0															
	1279	32.325133014311604	3.76301686895667	16.0382952337386	-16.4131069646683	1.00241	47.830978430458394	1	47.8309784304584	0.0															
	1394	233.79768106916902	15.3889585213543	143.431122585477	-39.163123445623704	1.00238	327.941066311374	1	327.941066311374	0.0															
	1395	228.99522333410803	18.305990717556302	143.201212325564	-47.780816282485	1.01725	328.221132472344	1	328.221132472344	0.0															
	1396	181.826398928217	2.92992144144773	146.550946039439	-60.67034603693061	1.0801	333.52684475354897	1	333.52684475354897	0.0															
	1397	193.42773506570302	20.8648841696903	142.575249858822	-54.823367158656175	1.07699	335.174992911071	1	335.174992911071	0.0															
	1398	143.62341807961803	8.5770152216617	145.38803615633898	-82.9223262770218	1.01396	323.952838555873	1	323.952838555873	0.0															
	1399	252.81525112172497	20.5288921560526	143.540259748406	-71.6828966359228	1.01738	321.767278076075	1	321.767278076075	0.0															
	1400	339.36660236744706	9.45069326332528	179.94293623510703	-91.5745576726452	1.01525	422.530060780491	1	422.530060780491	0.0															
	1401	328.650323317071	1.83437086554319	181.872876888374	-92.37304145073789	1.01123	422.44099449906497	1	422.44099449906497	0.0															
	1402	333.605957972587	3.30725365806478	180.996407369385	-89.7215593289731	1.01182	416.57544194585597	1	416.575441945856	0.0															
	1403	352.540245030636	28.1103395883693	186.845473877853	-92.679939084734	1.01054	411.61222137440905	1	411.61222137440905	0.0															
	1407	291.08311794626997	-1.2139723646659397	181.356975155417	-106.22686386341198	1.01726	428.869098612061	1	428.86909861206107	0.0															
	1408	337.08405474398	2.37235024599703	180.78299891413198	-108.68359219981403	1.01886	413.432336428249	1	413.4323364282491	0.0															
	1411	97.7013988349731	4.29467949318355	64.7134504035086	-44.0059625754378	1.01934	158.354711054701	1	158.354711054701	0.0															
	1412	99.9689406776247	1.1591755747586	65.64046649780418	-42.9160134657559	1.01637	157.83937821052	1	157.83937821052	0.0															
	1413	107.51995301137498	-6.630803831098969	65.64034041714612	-43.1443078425118	1.009	153.609530652668	1	153.609530652668	0.0															
	1414	254.35082605878102	114.02582900406999	154.606299471656	-84.20062501158378	1.06955	375.605614145869	1	375.605614145869	0.0															
	1415	133.617273394639	1.6690695347473001	84.25352713164	-55.42836806419389	0.96738	209.356691142824	1	209.356691142824	0.0															
	1416	167.280394055444	3.2157747441737397	88.2031193806911	-50.221432574884	0.96634	205.18749745981802	1	205.18749745981802	0.0															
	1419	392.37162271625607	15.8635004029665	222.01578129639395	-113.626588569721	0.98831	628.052562262723	1	628.052562262723	0.0															
	1420	389.17365927410503	16.542018985211897	217.955337709421	-111.29210267448799	0.98849	638.170104924729	1	638.170104924729	0.0															
	1421	446.095845639464	33.8465337004101	250.306133095035	-208.67307585587298	0.97748	671.132690536673	1	671.132690536673	0.0															
	1425	0.0	0.124195797505276	16.0670477952808	-12.9236320733093	1.01974	35.3824854665436	1	35.3824854665436	0.0															
	1426	26.060170449972205	-0.192852384490659	16.3157659617718	-12.985960817523301	1.02374	35.1063570457092	1	35.1063570457092	0.0															
	1429	0.0	2.49148080884786	10.6199372978881	-9.51195531778503	0.94245	24.0841503046104	1	24.084150304610404	0.0															
	1430	18.586411690213502	1.8555040984759998	10.633135869633401	-9.455394026055	0.9398	24.7130107383127	1	24.713010738312697	0.0															
	1431	18.792232497129604	2.31586751971524	10.8258061378729	-9.5922543202294	0.94267	23.6974350718665	1	23.6974350718665	0.0															
	1432	0.0	0.570948067357205	10.7970963336993	-9.78402039622888	0.93537	24.5818638734054	1	24.5818638734054	0.0															
	1433	0.0958614002307877	0.777090317195049	4.266772488225249	-3.2803044238127796	1.01518	8.7651425538864	1	8.7651425538864	0.0															
	1437	149.13769483177	-11.938774312788402	83.36840408742428	-65.56275631114842	1.00347	195.96899449389898	1	195.96899449389898	0.0															
	1438	78.57012764308452	7.65819148109229	49.8400348263651	-37.966390578057194	0.92011	105.795435098372	1	105.79543509837201	0.0															
	1439	122.659723240664	-4.114679432228209	75.6813709978014	-43.56289429795	1.00491	189.74077837402	1	189.74077837402	0.0															
	1441	28.5315465193212	-5.97646587355519	12.835821223910898	-12.6212911846116	0.99805	34.7002429670887	1	34.7002429670887	0.0															
	1499	151.481625780188	-3.1803239799808702	88.3334718709364	-52.1606564629599	0.98699	223.21536341426	1	223.21536341426	0.0															
	1500	162.32070663892702	-6.57704077966753	93.6771039300419	-49.8093723358709	0.98381	230.990713269683	1	230.99071326968303	0.0															
	1501	134.162182604531	10.3741542792809	88.027697020471	-54.10118326286331	0.99662	225.23718779557402	1	225.23718779557402	0.0															
	1558	333.83098638962196	18.201650020846603	187.426987361648	-84.6002203775514	1.0065	416.378375744331	1	416.37837574433104	0.0															
	1559	331.572555586178	14.097260140581	187.669186300988	-85.06820603642421	1.00423	426.8220308	1	426.8220308	0.0															
	1560	136.302122333584	-16.7380826868276	146.62290048844002	-123.132548622373	0.99478	423.626371387602	1	423.626371387602	0.0															
	1561	349.539415874761	9.086868038214742	184.270663669502	-85.19830188936011	1.00248	515.843401	1	515.843401	0.0															
	1628	367.584851894179	41.0305055378158	223.73748001349202	-178.142572029121	1.00366	579.8661901449091	1	579.866190144909	0.0															
	1629	364.29128839322004	48.745432587144	220.58729005982204	-182.99704656265698	1.0051	566.034920721082	1	566.034920721082	0.0															
	1636	27.4967476991704	-0.197728151173517	0.21936354003956096	-0.22302106980737296	0.99352	36.2839481079485	1	36.2839481079485	0.0															
	1640	80.8969085377662	4.976529913062599	10.099234705	-20.219328893	0.99873	121.983711870527	1	121.98371187052699	0.0															
	1641	17.264698250152	0.655523609431461	0.718534689576132	-0.698904260466341	0.9941	21.6044311194727	1	21.604431119472704	0.0															
	1659	0.0	3.57525504164393	23.6598815813195	-8.76176854558289	0.98064	36.2619373	1	36.2619373	0.0															
	1660	0.0	3.75328538779309	23.9286257288768	-8.54390567094088	0.98165	37.22684	1	37.22684	0.0															
	1661	0.0	0.258818292321265	24.5150344303111	-8.64804537352174	0.97347	36.524171100000004	1	36.524171100000004	0.0															
	1662	0.0	4.23996887961002	24.0367796063656	-8.63783673103899	0.98277	37.0209491	1	37.0209491	0.0															
	1665	0.0	1.9322701630242196	23.784596585494	-8.60433455165476	0.97606	37.2833587994021	1	37.2833587994021	0.0															
	1666	0.0	1.952267824	23.8187134763575	-8.44806214440614	0.96603	37.528516240641	1	37.528516240641	0.0															
	1667	0.0	3.3381552571319	23.6825894860667	-8.464857105910783	0.9779	36.3901201120326	1	36.3901201120326	0.0															
	1668	0.0	2.9525197255446596	24.0833969847299	-8.506062235496941	0.97693	36.1408798766029	1	36.1408798766029	0.0															
	1683	70.7750319602899	0.0060748899931088104	5.006546884034001	-15.006561913253	1.09411	89.9570863413974	1	89.95708634139741	0.0															
	1684	127.264972509581	7.903512925389969	88.72322266073901	-71.3420374208596	0.99553	198.828031233628	1	198.828031233628	0.0															
	1685	135.210093454782	11.477315202595099	85.95480287179818	-71.3987163781654	0.99759	194.91053826953302	1	194.91053826953302	0.0															
	1686	137.62957877398497	9.789118596352642	88.4571553576738	-70.95612051626668	0.99607	203.925937385531	1	203.92593738553103	0.0															
	1690	38.4946844491548	16.7631166103504	61.223826457420394	0.0	1.00101	162.35489527462101	1	162.35489527462101	0.0															
	1691	37.3084137147125	11.7401205939442	61.1169451517053	0.0	0.99526	159.27815700299098	1	159.278157002991	0.0															
	1692	38.770804742195004	18.323136900162	61.4413591394201	0.0	1.00174	159.933895852882	1	159.933895852882	0.0															
	1693	55.8750720689865	12.2027521266136	102.60551564220802	-43.5886791613652	1.00541	266.94065888878	1	266.94065888878	0.0															
	1694	61.3134457642919	19.0100216837332	102.179665919766	-44.6975406577112	1.01184	272.704311920097	1	272.704311920097	0.0															
	1695	58.176223566194906	15.919317246771	105.959633671166	-43.971128094615395	1.00877	262.876889418112	1	262.876889418112	0.0															
	1696	78.7966765485445	5.715587193107	63.159811665549	-37.492361415046396	1.01738	175.50502469390602	1	175.50502469390602	0.0															
	1697	49.6087914977608	5.56327793701654	35.972756975169595	-17.9003871763423	1.01721	88.5158615344204	1	88.51586153442041	0.0															
	1699	38.6113984149723	-1.44746811458711	20.5895005164901	-16.818697669729602	1.0036	50.093021374605605	1	50.093021374605605	0.0															
	1705	22.8188918386586	-7.02094158437103	7.44299983186647	-7.66421099454165	1.0024	34.96740921	1	34.96740921	0.0															
	1706	17.313522312438597	-4.97280344702303	5.21209918666631	-5.25276126880199	1.00267	100.7653224	1	100.7653224	0.0															
	1708	63.2268506484948	6.521236869879629	11.909516936000001	-21.980508199000003	1.01253	77.61118044	1	77.61118044	0.0															
	1709	93.2166602577516	-26.2550978837705	31.408483860828003	-31.140036932029798	0.96231	109.9329537	1	109.9329537	0.0															
	1710	38.3189882633566	-2.3943805510195904	6.17553515918693	-6.1068309832802	0.98213	50.331527630000004	1	50.331527630000004	0.0															
	2114	100.949965172718	15.8580971790647	103.178625964909	-88.0397350739222	0.98803	147.69696593489502	1	147.69696593489502	0.0															
	2115	101.98801294916	11.2237937533833	112.74437511321203	-103.961025919649	0.98282	147.170128862932	1	147.170128862932	0.0															
	2116	73.44618478614161	11.7072726332725	53.6545927810948	-37.6928848471694	0.9882	99.82682290775702	1	99.82682290775702	0.0															
	2117	47.216573469236	1.2136413577921699	11.685417176817499	-12.6950800597709	1.05511	59.56099006	1	59.56099006000001	0.0															
	2118	0.0	-0.006768525156425311	83.83218303075988	-70.406023237661	0.98159	123.24446895776799	1	123.24446895776799	0.0															
	2119	2.05432535428554	-3.6955045059300002	14.740269701425	-11.8503091197205	0.94727	37.868305058335	1	37.868305058335	0.0															
	2123	49.579877537453484	-7.53504049162455	46.1680542550115	-26.664161269336496	0.99307	72.60313276841859	1	72.60313276841859	0.0															
	2124	137.396424963428	23.1323326218313	119.704536603408	-38.910738375944106	1.05574	192.64760894081599	1	192.647608940816	0.0															
	2125	64.71147344283762	8.644864607815817	60.562258014826696	-18.3596823917715	1.05271	96.0025555250328	1	96.0025555250328	0.0															
	2126	9.82450783043848	0.050819844169588804	10.6404628411658	-5.93085529242624	1.05495	16.4278021572973	1	16.4278021572973	0.0															
	2127	34.9319525974112	0.009933722652494908	19.6865621649055	-12.1267718605092	1.04821	40.33056631	1	40.33056631	0.0															
	2128	32.3089076933498	0.9419516572624909	12.1430541370763	-12.454219313193999	1.05035	40.0795192	1	40.0795192	0.0															
	2129	24.963966136035697	0.239045050738007	12.872827879276599	-4.14459491161164	1.00571	33.6463986921869	1	33.6463986921869	0.0															
	2130	24.074777174613402	0.46368007554411894	12.8968590873806	-4.15327683904674	1.0064	33.3273031253414	1	33.3273031253414	0.0															
	2131	24.1970479211855	-0.379025940144062	12.951013372307601	-4.08020519196987	1.00365	34.233340868547096	1	34.233340868547096	0.0															
	2132	28.4679129616367	10.404304921856601	21.0350871851171	-6.02741892396854	1.03199	37.7499579498544	1	37.7499579498544	0.0															
	2133	34.3623818564035	-10.1806803593985	32.8836587648791	-16.953172179811	0.96138	53.9771218854003	1	53.9771218854003	0.0															
	2134	105.10400928355598	3.30291061631516	69.934474452585	-44.3516177679878	0.95645	169.174009550363	1	169.17400955036302	0.0															
	2135	104.805398459447	3.11307038174029	76.4765975557431	-61.813172649238304	0.9564	175.344738017768	1	175.344738017768	0.0															
	2136	85.445430155	-7.1366510739999995	76.6125702468935	-52.96405571773649	0.9492	168.12110569328098	1	168.121105693281	0.0															
	2138	26.2199891117512	-0.79302688851878	31.6034660905134	-26.058079304359904	1.02356	33.7659113864647	1	33.765911386464694	0.0															
	2139	15.9424347942778	-4.483969936649319	10.1961890817224	-8.372556323215829	1.01721	36.76534479	1	36.76534479	0.0															
	2140	53.38467952529129	2.89706152168536	63.4851588034071	-41.0590677038999	0.98842	67.9893259308301	1	67.9893259308301	0.0															
	2142	53.8733716477824	5.237919695317279	63.4923866791651	-39.3854491197271	0.98837	68.36997707287081	1	68.3699770728708	0.0															
	2143	55.89335614416999	4.376945288409251	64.6712742489763	-39.79839268693468	0.98685	66.6358637739904	1	66.6358637739904	0.0															
	2144	57.6238744085221	6.15992598070428	65.7409655093215	-39.84337432921169	0.98994	67.2894188493956	1	67.2894188493956	0.0															
	2148	7.435417173533231	-0.30898741889148995	5.3402217664	-15.343719606300002	1.07274	83.72531062298448	1	83.72531062298448	0.0															
	2329	45.9946811998802	1.32156310736672	25.9625074446783	-13.7394661876559	0.98622	65.7624427797273	1	65.7624427797273	0.0															
	2330	0.0	1.59340415728837	15.6555312086362	-7.257341341199348	0.98727	36.1447293923702	1	36.1447293923702	0.0															
	2331	26.4788677188798	-4.81024136099475	11.9530013476595	-11.541152572035202	0.98153	32.9465583476471	1	32.946558347647105	0.0															
	2332	28.290144359801197	3.03866334651271	8.065644633768407	-10.834745830007401	1.01403	34.046855572122205	1	34.046855572122205	0.0															
	2333	13.345418793149303	-0.167070114086708	6.28247435201425	-5.45965531480033	1.00599	16.3866927560885	1	16.3866927560885	0.0															
	2334	21.9071191165335	-1.67227254103906	15.337314383845799	-9.61530183150899	0.99813	32.5552539895289	1	32.5552539895289	0.0															
	2335	21.9217522649333	-0.147830591569655	15.5119892131266	-9.664504731958727	1.00408	31.920388778904503	1	31.920388778904503	0.0															
	12	0.0	-21.531810070351803	317.466779958177	-145.508933043224	1.0605	1.08747929753736	1	108.74792975373599	0.0															
	24	38.3974242998332	0.0	0	0	1.07713	0.7938849320478039	1	79.38849320478039	0.0															
	25	33.235892587486596	0.0	0	0	1.07705	0.7164935316257183	1	71.64935316257183	0.0															
	26	20.9660063255453	0.71839715225622	5.7353400992	-15.7434670301	1.08759	0.500407203184462	1	50.0407203184462	0.0															
...
];

%% branch data
%    f_bus    t_bus    r    x    b    rateA    rateB    rateC    ratio    angle    status    angmin    angmax
mpc.branch = [
	27	625	0.00152196994437692	0.003455772831731148	0.000785690238245297	10000	10000	10000	0	0	1	-59.99999999999999	59.99999999999999								
	28	291	0.020922627211152196	0.050615341550186474	0.010714697894051696	10000	10000	10000	0	0	1	-59.99999999999999	59.99999999999999								
	28	292	0.0213946048670181	0.04942146980714439	0.012801024095775597	10000	10000	10000	0	0	1	-59.99999999999999	59.99999999999999								
	28	350	0.020236665886361197	0.050316143305972186	0.10562471664845893	10000	10000	10000	0	0	1	-59.99999999999999	59.99999999999999								
	52	594	0.026853445793652002	0.19165742354521298	5.195117468480018e-5	10000	10000	10000	0	0	1	-59.99999999999999	59.99999999999999								
	53	594	0.026984079889560107	0.185702086980017	5.17387384688482e-5	10000	10000	10000	0	0	1	-59.99999999999999	59.99999999999999								
	59	260	0.011122782782912299	0.0297112037291843	0.006220453130174425	10000	10000	10000	0	0	1	-59.99999999999999	59.99999999999999								
	59	267	0.045772095961356514	0.120590632657148	0.025792474726494402	10000	10000	10000	0	0	1	-59.99999999999999	59.99999999999999								
	59	304	0.006779413947917152	0.018607729760026597	0.004025052771484478	10000	10000	10000	0	0	1	-59.99999999999999	59.99999999999999								
	85	87	0.0011389550104285596	0.01393588748747199	1.6833172193448998	10000	10000	10000	0	0	1	-59.99999999999999	59.99999999999999								
	85	87	0.0011225049821915992	0.013771688338268497	1.6954215021408197	10000	10000	10000	0	0	1	-59.99999999999999	59.99999999999999								
	86	126	0.0006403316210620108	0.0064468902751826694	0.080071637497656	10000	10000	10000	0	0	1	-59.99999999999999	59.99999999999999								
	86	126	0.000620334336382803	0.006148481834081931	0.08240736240510083	10000	10000	10000	0	0	1	-59.99999999999999	59.99999999999999								
	86	142	0.0008590316504566002	0.008691190724875782	0.112796315229684	10000	10000	10000	0	0	1	-59.99999999999999	59.99999999999999								
	86	143	0.0031186025418690404	0.03052345278941931	0.45626901837147793	10000	10000	10000	0	0	1	-59.99999999999999	59.99999999999999								
	88	115	0.0006390014028278651	0.0064548685555730016	0.09401233060830509	10000	10000	10000	0	0	1	-59.99999999999999	59.99999999999999								
	88	131	0.0014358749276801	0.014644579098475205	0.18420688904757598	10000	10000	10000	0	0	1	-59.99999999999999	59.99999999999999								
	88	133	0.0006980898858401917	0.006846981908912769	0.09338147855802613	10000	10000	10000	0	0	1	-59.99999999999999	59.99999999999999								
	89	206	0.00190910632741973	0.007129405827031276	0.002942751897148789	10000	10000	10000	0	0	1	-59.99999999999999	59.99999999999999								
	89	220	0.0019061232666470094	0.007716950060326607	0.0030020815442502492	10000	10000	10000	0	0	1	-59.99999999999999	59.99999999999999								
	89	318	0.0010623007548565002	0.005586957135185598	0.010829931442786	10000	10000	10000	0	0	1	-59.99999999999999	59.99999999999999								
	89	431	0.000852000579141825	0.0034720303751509607	0.004113535888313782	10000	10000	10000	0	0	1	-59.99999999999999	59.99999999999999								
	89	434	0.0008233101740442222	0.0034664138908933385	0.00408581066967174	10000	10000	10000	0	0	1	-59.99999999999999	59.99999999999999								
	90	99	0.00549684407743448	0.04001467715759991	0.5277011763906659	10000	10000	10000	0	0	1	-59.99999999999999	59.99999999999999								
	90	104	0.0036628589148653694	0.046574779405701004	0.7304052178330444	10000	10000	10000	0	0	1	-59.99999999999999	59.99999999999999								
	90	136	0.0024404891880895	0.029288513049949005	0.47137858199290905	10000	10000	10000	0	0	1	-59.99999999999999	59.99999999999999								
	90	138	0.00411569981152844	0.0332833799581951	0.405787904264694	10000	10000	10000	0	0	1	-59.99999999999999	59.99999999999999								
	90	138	0.005464298468891071	0.035343942727401906	0.43209820210204875	10000	10000	10000	0	0	1	-59.99999999999999	59.99999999999999								
	91	100	0.00032143239948153506	0.0034259883954422506	0.039614513562890204	10000	10000	10000	0	0	1	-59.99999999999999	59.99999999999999								
	91	114	0.0029789123197607697	0.0213626300034765	0.2681391625330549	10000	10000	10000	0	0	1	-59.99999999999999	59.99999999999999								
	91	115	0.0011140258456952897	0.0129505473830168	0.14802050571879896	10000	10000	10000	0	0	1	-59.99999999999999	59.99999999999999								
	92	116	0.0010885510705970199	0.0147748298170697	1.7006090545761405	10000	10000	10000	0	0	1	-59.99999999999999	59.99999999999999								
	92	116	0.0011106263382062301	0.014144395822631203	1.6346730551440307	10000	10000	10000	0	0	1	-59.99999999999999	59.99999999999999								
	93	114	0.0003592095476724209	0.00485193630699255	0.09552678346910695	10000	10000	10000	0	0	1	-59.99999999999999	59.99999999999999								
	93	114	0.00036659299122914716	0.004587482080457733	0.09496649899752864	10000	10000	10000	0	0	1	-59.99999999999999	59.99999999999999								
	93	119	0.00239067232144671	0.017843493603628604	0.21502937305927303	10000	10000	10000	0	0	1	-59.99999999999999	59.99999999999999								
	93	137	0.00457242868733257	0.03418020142564271	0.4077533713723808	10000	10000	10000	0	0	1	-59.99999999999999	59.99999999999999								
	94	116	0.0017476373474070298	0.0225862475770181	2.5475262015797195	10000	10000	10000	0	0	1	-59.99999999999999	59.99999999999999								
	94	149	0.0008477767884357367	0.011571809222622798	1.3597626684780695	10000	10000	10000	0	0	1	-59.99999999999999	59.99999999999999								
	95	110	0.00018765208803769203	0.0017710291671985806	0.02400285282507539	10000	10000	10000	0	0	1	-59.99999999999999	59.99999999999999								
	95	110	0.00018309565764572502	0.0017152461362816408	0.025621291051786402	10000	10000	10000	0	0	1	-59.99999999999999	59.99999999999999								
	95	127	0.005062739744205489	0.047457793328152004	0.6801827127528468	10000	10000	10000	0	0	1	-59.99999999999999	59.99999999999999								
	95	137	0.005640994447898819	0.054073627863782496	0.7772919484522188	10000	10000	10000	0	0	1	-59.99999999999999	59.99999999999999								
	96	109	6.81832438181154e-5	0.0006009381685005502	0.006939347560694441	10000	10000	10000	0	0	1	-59.99999999999999	59.99999999999999								
	97	98	0.00244661896547396	0.019350938101233905	0.22834600732551413	10000	10000	10000	0	0	1	-59.99999999999999	59.99999999999999								
	97	109	0.0054815638063252	0.0399409118961464	0.47973428935437484	10000	10000	10000	0	0	1	-59.99999999999999	59.99999999999999								
	98	113	0.00410372099094093	0.029828231756910704	0.36499138505975703	10000	10000	10000	0	0	1	-59.99999999999999	59.99999999999999								
	98	141	0.0038084608243499	0.03183420282778101	0.37810937236825903	10000	10000	10000	0	0	1	-59.99999999999999	59.99999999999999								
	98	147	0.00144971191580594	0.014868301946477504	0.19000741341426997	10000	10000	10000	0	0	1	-59.99999999999999	59.99999999999999								
	98	151	0.0016278954856574497	0.0132292583637871	0.157336153255356	10000	10000	10000	0	0	1	-59.99999999999999	59.99999999999999								
	99	111	0.00709601896856702	0.054174033131706496	0.65326785024438	10000	10000	10000	0	0	1	-59.99999999999999	59.99999999999999								
	100	109	0.00166386096210172	0.0135379533045636	0.15520439058789107	10000	10000	10000	0	0	1	-59.99999999999999	59.99999999999999								
	100	114	0.00274414111995976	0.020981657009152704	0.2617178211031481	10000	10000	10000	0	0	1	-59.99999999999999	59.99999999999999								
	100	133	0.00187141090140715	0.021428806004412503	0.27130704536082195	10000	10000	10000	0	0	1	-59.99999999999999	59.99999999999999								
	101	144	0.005964429343834518	0.04615595429384241	0.559919314950723	10000	10000	10000	0	0	1	-59.99999999999999	59.99999999999999								
	102	106	0.000254828323430382	0.002517975235153461	1.2525606660218898	10000	10000	10000	0	0	1	-59.99999999999999	59.99999999999999								
	102	106	0.000271172397340648	0.00264301669002743	1.24495918041561	10000	10000	10000	0	0	1	-59.99999999999999	59.99999999999999								
	103	201	0.0342950132478122	0.09924133636807418	0.0261390999147855	10000	10000	10000	0	0	1	-59.99999999999999	59.99999999999999								
	103	286	0.035639496886978414	0.10653844324564596	0.02406568979042399	10000	10000	10000	0	0	1	-59.99999999999999	59.99999999999999								
	103	368	0.00101613012459353	0.0033156576309625097	0.0007252759098713294	10000	10000	10000	0	0	1	-59.99999999999999	59.99999999999999								
	104	136	0.0013382712363200298	0.017440944915344907	0.26543850867785507	10000	10000	10000	0	0	1	-59.99999999999999	59.99999999999999								
	104	1623	0.0036576786413243995	0.044478228680670306	0.6994230854636289	10000	10000	10000	0	0	1	-59.99999999999999	59.99999999999999								
	104	1623	0.00364630651943386	0.044199198991008104	0.7333035897027699	10000	10000	10000	0	0	1	-59.99999999999999	59.99999999999999								
	105	501	0.0003668577104597351	0.00441661813680176	3.330163318504069	10000	10000	10000	0	0	1	-59.99999999999999	59.99999999999999								
	106	137	0.00025530614959993407	0.0030419849197376512	0.0372119472607039	10000	10000	10000	0	0	1	-59.99999999999999	59.99999999999999								
	106	137	0.00026262887000595193	0.0029070965867340594	0.037134825276170895	10000	10000	10000	0	0	1	-59.99999999999999	59.99999999999999								
	107	133	0.0005990839999169109	0.00585149085285217	0.08520547032542988	10000	10000	10000	0	0	1	-59.99999999999999	59.99999999999999								
	107	145	0.00360740342547465	0.033197096485666905	0.514430723322602	10000	10000	10000	0	0	1	-59.99999999999999	59.99999999999999								
	108	144	0.00399604540073648	0.030581321998375908	0.3795588746255081	10000	10000	10000	0	0	1	-59.99999999999999	59.99999999999999								
	108	831	0.0016394406916201095	0.0128891051766779	0.15568176635422692	10000	10000	10000	0	0	1	-59.99999999999999	59.99999999999999								
	110	120	0.0006616731316100336	0.004931310835531909	0.07534584023475649	10000	10000	10000	0	0	1	-59.99999999999999	59.99999999999999								
	110	126	0.0030475391520839203	0.03176800784265111	0.40428603335089985	10000	10000	10000	0	0	1	-59.99999999999999	59.99999999999999								
	110	138	0.005567214432419281	0.04080208764306131	0.5366600638017708	10000	10000	10000	0	0	1	-59.99999999999999	59.99999999999999								
	110	139	0.003376445538480949	0.03559826780126431	0.47936948058143286	10000	10000	10000	0	0	1	-59.99999999999999	59.99999999999999								
	112	133	0.0004984658036660401	0.0052260588949895525	0.07084876054867645	10000	10000	10000	0	0	1	-59.99999999999999	59.99999999999999								
	112	137	0.00048894178866595	0.004779740621322771	0.06421571918618488	10000	10000	10000	0	0	1	-59.99999999999999	59.99999999999999								
	113	141	0.0016177231878188407	0.013075334178902207	0.15598860032670206	10000	10000	10000	0	0	1	-59.99999999999999	59.99999999999999								
	113	144	0.004230393194225061	0.031163470459792307	0.3978532764773349	10000	10000	10000	0	0	1	-59.99999999999999	59.99999999999999								
	113	151	0.00487603953066887	0.037748682541321	0.528233339417093	10000	10000	10000	0	0	1	-59.99999999999999	59.99999999999999								
	113	827	0.0030880695344582204	0.022429178837193205	0.28348333942303405	10000	10000	10000	0	0	1	-59.99999999999999	59.99999999999999								
	114	151	0.004608929471296258	0.03800400496403689	0.46118647054224277	10000	10000	10000	0	0	1	-59.99999999999999	59.99999999999999								
	114	151	0.004585812630360851	0.03577098650301621	0.41855507495459193	10000	10000	10000	0	0	1	-59.99999999999999	59.99999999999999								
	116	149	0.0008832353375784117	0.011167770984761396	1.3441456838160801	10000	10000	10000	0	0	1	-59.99999999999999	59.99999999999999								
	117	145	0.00022335998928956703	0.0021623495207090905	0.032297981452569395	10000	10000	10000	0	0	1	-59.99999999999999	59.99999999999999								
	117	145	0.000238167415531352	0.0023182632682465006	0.0307610085719302	10000	10000	10000	0	0	1	-59.99999999999999	59.99999999999999								
	117	148	0.007106177316955288	0.051405020363783506	0.6380371500890237	10000	10000	10000	0	0	1	-59.99999999999999	59.99999999999999								
	118	137	0.0035206865253672006	0.036645195242716	0.506899248446147	10000	10000	10000	0	0	1	-59.99999999999999	59.99999999999999								
	118	140	0.0011094031405812098	0.012115308408995605	0.16344245562190196	10000	10000	10000	0	0	1	-59.99999999999999	59.99999999999999								
	118	142	0.00020985141811380198	0.0021308087728247006	0.02607113050868731	10000	10000	10000	0	0	1	-59.99999999999999	59.99999999999999								
	119	151	0.0025201892583891702	0.01983479489308781	0.25642106492965905	10000	10000	10000	0	0	1	-59.99999999999999	59.99999999999999								
	120	138	0.005233336294688658	0.03793305422313649	0.4776140188000159	10000	10000	10000	0	0	1	-59.99999999999999	59.99999999999999								
	121	237	0.0007342707045497373	0.0017635611776928397	0.06341918928609089	10000	10000	10000	0	0	1	-59.99999999999999	59.99999999999999								
	122	239	0.0009008754581382962	0.0019385515564050494	0.07174157153103132	10000	10000	10000	0	0	1	-59.99999999999999	59.99999999999999								
	123	236	0.0009037223643902689	0.0019775712276953296	0.07457003090416173	10000	10000	10000	0	0	1	-59.99999999999999	59.99999999999999								
...